version 2
2
9
.tran 10u 10m{return}{return}.kicad adjustpaths{return}.save all{return}.probe alli
2
1
V(/Vout)
 
1
V(Net-_Vin1-Pin_1_)
 
1
.ac dec 2 50 50k{return}.kicad adjustpaths{return}.save all{return}.probe alli
4
9
V(/Vout)
 
5
V(/Vout)
 
9
V(Net-_Vin1-Pin_1_)
 
5
V(Net-_Vin1-Pin_1_)
 
