******
* Spice Model
* Item: 2N3906
* Date: 8/25/10
* Revision History: A
* ==========================================================
* This model was developed by: 
* Central Semiconductor Corp.
* 145 Adams Avenue
* Hauppauge, NY 11788
*
* These models are subject to change without notice.
* Users may not directly or indirectly re-sell or 
* re-distribute this model. This model may not 
* be modified, or altered without the consent of Central Semiconductor Corp. 
*
* For more information on this model contact
* Central Semiconductor Corp. at:
* (631) 435-1110 or Engineering@centralsemi.com
* http://www.centralsemi.com
* ==========================================================
******
*SRC=2N3906;2N3906;BJTs PNP; Si;  40.0V  0.20A  250MHz   Central Semi Central Semi
.MODEL 2N3906  PNP (
+ IS=7.9190E-15
+ BF=196.89
+ VAF=100
+ IKF=.7271
+ ISE=13.654E-15
+ NE=1.4535
+ BR=124.61
+ VAR=100
+ IKR=10.010E-3
+ ISC=18.518E-12
+ NC=1.6031
+ NK=1.1475
+ RB=8.6624
+ RC=.55428
+ CJE=11.640E-12
+ VJE=1.0397
+ MJE=.47196
+ CJC=7.8722E-12
+ VJC=.98301
+ MJC=.53872
+ TF=320.13E-12
+ XTF=29.514
+ VTF=81.870
+ ITF=.12448
+ TR=10.000E-9)
******