.MODEL 2N5551_Cordell npn IS=9f BF=125 VAF=667 IKF=0.09 ISE=1f NE=1.3 NF=1 RB=92 RC=1 RE=0.1 CJE=45p MJE=0.35 VJE=0.75 CJC=4.9p MJC=0.30 VJC=0.75 FC=0.5 TF=565p XTF=300 VTF=5 ITF=2.0 TR=1.2n BR=3 IKR=0 EG=1.1 XTB=1.5 XTI=3 NC=2 ISC=0 mfg=CA031011