**************************************
*      Model Generated by MODPEX     *
*Copyright(c) Symmetry Design Systems*
*         All Rights Reserved        *
*    UNPUBLISHED LICENSED SOFTWARE   *
*   Contains Proprietary Information *
*      Which is The Property of      *
*     SYMMETRY OR ITS LICENSORS      *
*Commercial Use or Resale Restricted *
*   by Symmetry License Agreement    *
**************************************
* Model generated on Oct 30, 03
* MODEL FORMAT: PSpice
.MODEL Qmje15035 pnp
+IS=5.81508e-15 BF=313.373 NF=0.85 VAF=40.5017
+IKF=0.897023 ISE=6.74258e-16 NE=1.04249 BR=0.958017
+NR=0.894461 VAR=148.639 IKR=7.05393 ISC=6.74258e-16
+NC=2.84461 RB=3.62039 IRB=0.1 RBM=0.1
+RE=0.000923293 RC=0.233799 XTB=2.92628 XTI=1.01325
+EG=1.17461 CJE=1.5597e-09 VJE=0.99 MJE=0.554057
+TF=1.35882e-09 XTF=1000 VTF=467.207 ITF=58.3338
+CJC=1.58888e-10 VJC=0.4 MJC=0.23 XCJC=0.786287
+FC=0.8 CJS=0 VJS=0.75 MJS=0.5
+TR=1e-07 PTF=0 KF=0 AF=1


