**************************************
*      Model Generated by MODPEX     *
*Copyright(c) Symmetry Design Systems*
*         All Rights Reserved        *
*    UNPUBLISHED LICENSED SOFTWARE   *
*   Contains Proprietary Information *
*      Which is The Property of      *
*     SYMMETRY OR ITS LICENSORS      *
*Commercial Use or Resale Restricted *
*   by Symmetry License Agreement    *
**************************************
* Model generated on Feb  6, 08
* MODEL FORMAT: PSpice
.MODEL Qnjw3281g npn
+IS=4.81888e-11 BF=119.415 NF=1.06881 VAF=21.6596
+IKF=10 ISE=1e-16 NE=1 BR=10.3886
+NR=1.06797 VAR=216.596 IKR=3.27392 ISC=1e-16
+NC=2.90616 RB=4.74135 IRB=0.1 RBM=1.57648
+RE=0.0001 RC=0.0383617 XTB=0.1 XTI=1
+EG=1.206 CJE=9.32161e-09 VJE=0.523647 MJE=0.322215
+TF=1.817e-09 XTF=1000 VTF=15.2293 ITF=121.9
+CJC=5e-10 VJC=0.8 MJC=0.23 XCJC=0.1
+FC=0.8 CJS=0 VJS=0.75 MJS=0.5
+TR=1e-07 PTF=0 KF=0 AF=1


