.model 2N6519 PNP (Is=34.9f Xti=3 Eg=1.11 Vaf=100 Bf=125.7 Ne=1.32 Ise=34.9f Ikf=.5134 Xtb=1.5 Br=5.07 Nc=2 Isc=0 Ikr=0 Rc=10 Cjc=31.63p Mjc=.5163 Vjc=.75)

Nf
Nr
Var
Re
Rb
Cje
Vje
Mje
tf
tr


xti
Eg
Nc
Isc
