*==============================================
*NPN Trans Pinout: C,B,E
*Copyright (c) 1996 MicroCode Engineering, Inc.
*All Rights Reserved
*
*See other copyright notices at end of file.
*==============================================

*NPN
*Default NPN Bipolar transistor parameters pkg:TO-92 1,2,3
.MODEL QNPN~ NPN()

*QNPN
*pkg:TO-92 1,2,3
.MODEL QQNPN NPN(IS=3.2E-16 BF=141 VAF=35 ISE=2.6 NE=1.46 CJE=1E-13 
+ MJE=0.333 TF=6E-11 CJC=1E-13 CJS=2.2E-13 MJS=0.5 FC=0.67 )

*2N2219A MCE 5/13/95
*Si 800mW  40V 800mA 350MHz pkg:TO-5 3,2,1
.MODEL Q2N2219A NPN(IKR=0.285 RB=1.53 RE=0.383 RC=0.153 CJE=2.41E-11 
+ VJE=1.1 MJE=0.5 TF=4.54E-10 CJC=2.02E-11 VJC=0.3 MJC=0.3 TR=3.15E-7 
+ XTB=1.5 )

*2N2222A
*Si 500mW  40V 800mA 300MHz pkg:TO-18 3,2,1
.MODEL Q2N2222A NPN(IS=8.11E-14 BF=205 VAF=113 IKF=0.5 ISE=1.06E-11 
+ NE=2 BR=4 VAR=24 IKR=0.225 RB=1.37 RE=0.343 RC=0.137 CJE=2.95E-11 
+ TF=3.97E-10 CJC=1.52E-11 TR=8.5E-8 XTB=1.5 )

*2N2369A MCE 5/15/95
*Si 360mW  15V 500mA 600MHz pkg:TO-18 3,2,1
.MODEL Q2N2369A NPN (IS=11.2F NF=1 BF=130 VAF=69.7 IKF=57M ISE=8.01P NE=2
+ BR=4 NR=1 VAR=18 IKR=85.5M RE=2.06 RB=8.26 RC=.826 XTB=1.5
+ CJE=3.17P VJE=1.1 MJE=.5 CJC=5.91P VJC=.3 MJC=.3 TF=265P TR=10.2N)

*2N2484 MCE 5/13/95
*Si 360mW  60V  50mA 100MHz pkg:TO-18 3,2,1
.MODEL Q2N2484 NPN (IS=5.07F NF=1 BF=455 VAF=139 IKF=30M ISE=1.11P NE=2
+ BR=4 NR=1 VAR=24 IKR=45M RE=1.03 RB=4.12 RC=.412 XTB=1.5
+ CJE=4.82P VJE=1.1 MJE=.5 CJC=7.1P VJC=.3 MJC=.3 TF=1.59N TR=1.1U)

*2N3019 MCE 5/13/95
*Si 800mW  80V    1A 190MHz pkg:TO-5 3,2,1
.MODEL Q2N3019 NPN (IS=2.02F NF=1 BF=260 VAF=161 IKF=.75 ISE=6.16P NE=2
+ BR=4 NR=1 VAR=28 IKR=1.12 RE=.331 RB=1.32 RC=.132 XTB=1.5
+ CJE=76P VJE=1.1 MJE=.5 CJC=18.7P VJC=.3 MJC=.3 TF=837P TR=581N)

*2N3053 MCE 1/26/96
*Si 5W     40V 700mA 185MHz pkg:TO-5 3,2,1
.MODEL Q2N3053 NPN (IS=71.1F NF=1 BF=260 VAF=113 IKF=.42 ISE=27.3P NE=2
+ BR=4 NR=1 VAR=20 IKR=.63 RE=73.6M RB=.294 RC=29.4M XTB=1.5
+ CJE=79.2P VJE=1.1 MJE=.5 CJC=25.5P VJC=.3 MJC=.3 TF=858P TR=596N)

*2N3055
*Si  115W  70V   15A  20kHz pkg:TO-3 3,2,1
.MODEL Q2N3055 NPN(IS=4.66E-12 BF=360 VAF=100 IKF=0.25 ISE=3.339E-11 
+ BR=2 ISC=5E-9 RB=3 IRB=0.001 RBM=0.4 RC=0.04 CJE=5.802E-10 VJE=1.2 
+ MJE=0.45 TF=8E-8 XTF=1 ITF=3 PTF=120 CJC=2.121E-10 MJC=0.4 TR=2.55E-6 
+ XTB=1 )

*2N3501 MCE 5/13/95
*Si    1W 150V 300mA 283MHz pkg:TO-5 3,2,1
.MODEL Q2N3501 NPN (IS=30.4F NF=1 BF=136 VAF=220 IKF=.12 ISE=18.2P NE=2
+ BR=4 NR=1 VAR=24 IKR=.18 RE=.171 RB=.687 RC=68.7M XTB=1.5
+ CJE=63.5P VJE=1.1 MJE=.5 CJC=14.6P VJC=.3 MJC=.3 TF=562P TR=390N)

*2N3507
*Si    1W  50V    3A  60MHz pkg:TO-5 3,2,1
.MODEL Q2N3507 NPN(IS=1.5E-8 BF=75 NF=1.67 VAF=100 IKF=1.2 BR=4 RC=0.2 
+ CJE=5E-10 TF=1.8E-9 CJC=7E-11 TR=2.5E-8 XTB=1.5 )

*2N3700 MCE 5/13/95
*Si 500mW  80V    1A 190MHz pkg:TO-18 3,2,1
.MODEL Q2N3700 NPN (IS=2.02F NF=1 BF=260 VAF=161 IKF=.75 ISE=6.16P NE=2
+ BR=4 NR=1 VAR=28 IKR=1.12 RE=.331 RB=1.32 RC=.132 XTB=1.5
+ CJE=76P VJE=1.1 MJE=.5 CJC=18.7P VJC=.3 MJC=.3 TF=837P TR=581N)

*2N3904
*Si 310mW  40V 200mA 300MHz pkg:TO-92 1,2,3
.MODEL Q2N3904 NPN(IS=1.4E-14 BF=300 VAF=100 IKF=0.025 ISE=3E-13 
+ BR=7.5 RC=2.4 CJE=4.5E-12 TF=4E-10 CJC=3.5E-12 TR=2.1E-8 XTB=1.5 KF=9E-16 )

*2N3947 MCE 5/13/95
*Si 360mW  40V 200mA 346MHz pkg:TO-18 3,2,1
.MODEL Q2N3947 NPN (IS=.258F NF=1 BF=286 VAF=113 IKF=32M ISE=413F NE=2
+ BR=4 NR=1 VAR=24 IKR=48M RE=1.03 RB=4.12 RC=.412 XTB=1.5
+ CJE=7.18P VJE=1.1 MJE=.5 CJC=6.15P VJC=.3 MJC=.3 TF=458P TR=425N)

*2N4401
*Si 310mW  40V 600mA 250MHz pkg:TO-92 1,2,3
.MODEL Q2N4401 NPN(IS=9.09E-15 BF=300 VAF=113 IKF=0.36 ISE=1.06E-11 
+ NE=2 BR=4 VAR=24 IKR=0.54 RB=1.27 RE=0.319 RC=0.127 CJE=2.34E-11 TF=5.12E-10 
+ CJC=1.02E-11 TR=1.51E-7 XTB=1.5 )

*2N5551 MCE 5/11/95
*Si 625mW 160V 600mA 300MHz pkg:TO-92 1,2,3
.MODEL Q2N5551 NPN (IS=2.67E-20 NF=1 BF=195 VAF=227 IKF=15M ISE=4.22F NE=2
+ BR=4 NR=1 VAR=24 IKR=22.5M RE=1.63 RB=6.52 RC=.652 XTB=1.5
+ CJE=17.9P VJE=1.1 MJE=.5 CJC=7.76P VJC=.3 MJC=.3 TF=530P TR=595N)

*2N6431 MCE 5/13/95
*Si 500mW 300V  50mA 300MHz pkg:TO-18 3,2,1
.MODEL Q2N6431 NPN (IS=5.07F NF=1 BF=130 VAF=311 IKF=30M ISE=3.9P NE=2
+ BR=4 NR=1 VAR=24 IKR=45M RE=1.03 RB=4.12 RC=.412 XTB=1.5
+ CJE=12.4P VJE=1.1 MJE=.5 CJC=4.02P VJC=.3 MJC=.3 TF=530P TR=368N)

*2N6517 MCE 5/11/95
*Si 625mW 350V 500mA 200MHz pkg:TO-92 1,2,3
.MODEL Q2N6517 NPN (IS=67.3F NF=1 BF=320 VAF=336 IKF=90M ISE=97.3P NE=2
+ BR=4 NR=1 VAR=24 IKR=.135 RE=9.63 RB=38.5 RC=3.85 XTB=1.5
+ CJE=58P VJE=1.1 MJE=.5 CJC=13.3P VJC=.3 MJC=.3 TF=795P TR=5.1U)

*2N6715 ZETEX Spice model   Last revision  16/1/91   Medium Power
*ZTX Si    1W  40V    1A  50MHz pkg:TO-92 1,2,3
.MODEL Q2N6715 NPN(IS=2.22E-13 BF=230 NF=0.9956 VAF=100 IKF=2 ISE=2.9E-14 
+ NE=1.35 BR=56 NR=0.995 VAR=30 IKR=1 ISC=2.97E-13 NC=1.321 RB=0.04 
+ RE=0.075 RC=0.069 CJE=3.18E-10 TF=7.7E-10 CJC=5.1E-11 VJC=0.595 MJC=0.42 
+ TR=2.7E-8 )

*2SC2873 ZETEX Spice model   Last revision  17/7/90   Medium Power
*ZTX Si    1W  50V    2A 120MHz pkg:SOT-89 2,1,3
.MODEL Q2SC2873 NPN(IS=3E-13 BF=225 VAF=80 IKF=2.8 ISE=1.1E-13 NE=1.37 
+ BR=110 NR=0.972 VAR=28 IKR=0.8 ISC=6.5E-13 NC=1.372 RB=0.3 RE=0.063 
+ RC=0.07 CJE=3.25E-10 TF=1E-9 CJC=7E-11 TR=1E-8 )

*BC107BP ZETEX Spice model     Last revision  4/90   General Purpose
*ZTX Si 300mW  45V 200mA 150MHz pkg:TO-18 3,2,1
.MODEL QBC107BP NPN(IS=1.8E-14 BF=400 NF=0.9955 VAF=80 IKF=0.14 ISE=5E-14 
+ NE=1.46 BR=35.5 NR=1.005 VAR=12.5 IKR=0.03 ISC=1.72E-13 NC=1.27 RB=0.56 
+ RE=0.6 RC=0.25 CJE=1.3E-11 TF=6.4E-10 CJC=4E-12 VJC=0.54 TR=5.072E-8 )

*BC108BP ZETEX Spice model     Last revision  4/90   General Purpose
*ZTX Si 300mW  20V 200mA 150MHz pkg:TO-18 3,2,1
.MODEL QBC108BP NPN(IS=1.8E-14 BF=400 NF=0.9955 VAF=80 IKF=0.14 ISE=5E-14 
+ NE=1.46 BR=35.5 NR=1.005 VAR=12.5 IKR=0.03 ISC=1.72E-13 NC=1.27 RB=0.56 
+ RE=0.6 RC=0.25 CJE=1.3E-11 TF=6.4E-10 CJC=4E-12 VJC=0.54 TR=5.072E-8 )

*BC109BP ZETEX Spice model     Last revision  4/90   Low Noise
*ZTX Si   4dB  20V  50mA 150MHz pkg:TO-18 3,2,1
.MODEL QBC109BP NPN(IS=1.8E-14 BF=400 NF=0.9955 VAF=80 IKF=0.14 ISE=5E-14 
+ NE=1.46 BR=35.5 NR=1.005 VAR=12.5 IKR=0.03 ISC=1.72E-13 NC=1.27 RB=0.56 
+ RE=0.6 RC=0.25 CJE=1.3E-11 TF=6.4E-10 CJC=4E-12 VJC=0.54 TR=5.072E-8 )

*BC182BP ZETEX Spice model     Last revision  4/90   General Purpose
*ZTX Si 300mW  50V 200mA 150MHz pkg:TO-92 1,2,3
.MODEL QBC182BP NPN(IS=1.8E-14 BF=400 NF=0.9955 VAF=80 IKF=0.14 ISE=5E-14 
+ NE=1.46 BR=35.5 NR=1.005 VAR=12.5 IKR=0.03 ISC=1.72E-13 NC=1.27 RB=0.56 
+ RE=0.6 RC=0.25 CJE=1.3E-11 TF=6.4E-10 CJC=4E-12 VJC=0.54 TR=5.072E-8 )

*BC183BP ZETEX Spice model     Last revision  4/90   General Purpose
*ZTX Si 300mW  30V 200mA 150MHz pkg:TO-92 1,2,3
.MODEL QBC183BP NPN(IS=1.8E-14 BF=400 NF=0.9955 VAF=80 IKF=0.14 ISE=5E-14 
+ NE=1.46 BR=35.5 NR=1.005 VAR=12.5 IKR=0.03 ISC=1.72E-13 NC=1.27 RB=0.56 
+ RE=0.6 RC=0.25 CJE=1.3E-11 TF=6.4E-10 CJC=4E-12 VJC=0.54 TR=5.072E-8 )

*BC184BP ZETEX Spice model     Last revision  4/90   Low Noise
*ZTX Si   4dB  30V 200mA 150MHz pkg:TO-92 1,2,3
.MODEL QBC184BP NPN(IS=1.8E-14 BF=400 NF=0.9955 VAF=80 IKF=0.14 ISE=5E-14 
+ NE=1.46 BR=35.5 NR=1.005 VAR=12.5 IKR=0.03 ISC=1.72E-13 NC=1.27 RB=0.56 
+ RE=0.6 RC=0.25 CJE=1.3E-11 TF=6.4E-10 CJC=4E-12 VJC=0.54 TR=5.072E-8 )

*BC237BP ZETEX Spice model     Last revision  4/90   General Purpose
*ZTX Si 300mW  45V 200mA 150MHz pkg:TO-92 1,2,3
.MODEL QBC237BP NPN(IS=1.8E-14 BF=400 NF=0.9955 VAF=80 IKF=0.14 ISE=5E-14 
+ NE=1.46 BR=35.5 NR=1.005 VAR=12.5 IKR=0.03 ISC=1.72E-13 NC=1.27 RB=0.56 
+ RE=0.6 RC=0.25 CJE=1.3E-11 TF=6.4E-10 CJC=4E-12 VJC=0.54 TR=5.072E-8 )

*BC238BP ZETEX Spice model     Last revision  4/90   General Purpose
*ZTX Si 300mW  20V 200mA 150MHz pkg:TO-92 1,2,3
.MODEL QBC238BP NPN(IS=1.8E-14 BF=400 NF=0.9955 VAF=80 IKF=0.14 ISE=5E-14 
+ NE=1.46 BR=35.5 NR=1.005 VAR=12.5 IKR=0.03 ISC=1.72E-13 NC=1.27 RB=0.56 
+ RE=0.6 RC=0.25 CJE=1.3E-11 TF=6.4E-10 CJC=4E-12 VJC=0.54 TR=5.072E-8 )

*BC239BP ZETEX Spice model     Last revision  4/90   Low Noise
*ZTX Si   4dB  20V  50mA 150MHz pkg:TO-92 1,2,3
.MODEL QBC239BP NPN(IS=1.8E-14 BF=400 NF=0.9955 VAF=80 IKF=0.14 ISE=5E-14 
+ NE=1.46 BR=35.5 NR=1.005 VAR=12.5 IKR=0.03 ISC=1.72E-13 NC=1.27 RB=0.56 
+ RE=0.6 RC=0.25 CJE=1.3E-11 TF=6.4E-10 CJC=4E-12 VJC=0.54 TR=5.072E-8 )

*BC337AP ZETEX Spice model     Last revision  4/90   Medium Power
*ZTX Si 625mW  45V 800mA 100MHz pkg:TO-92 1,2,3
.MODEL QBC337AP NPN(IS=3.94E-14 BF=175 VAF=109.4 IKF=0.8 ISE=7.4E-15 
+ NE=1.3 BR=20.5 NR=0.974 VAR=14.25 IKR=0.1 ISC=3.16E-13 NC=1.2 RB=1.1 
+ RE=0.1259 RC=0.0539 CJE=6.3E-11 TF=7.5E-10 CJC=1.58E-11 VJC=0.505 
+ MJC=0.39 TR=8.5E-8 )

*BC338AP ZETEX Spice model     Last revision  4/90   Medium Power
*ZTX Si 625mW  25V 800mA 100MHz pkg:TO-92 1,2,3
.MODEL QBC338AP NPN(IS=3.94E-14 BF=175 VAF=109.4 IKF=0.8 ISE=7.4E-15 
+ NE=1.3 BR=20.5 NR=0.974 VAR=14.25 IKR=0.1 ISC=3.16E-13 NC=1.2 RB=1.1 
+ RE=0.1259 RC=0.0539 CJE=6.3E-11 TF=7.5E-10 CJC=1.58E-11 VJC=0.505 
+ MJC=0.39 TR=8.5E-8 )

*BC413BP ZETEX Spice model     Last revision  4/90   Low Noise
*ZTX Si   3dB  30V 100mA 250MHz pkg:TO-92 1,2,3
.MODEL QBC413BP NPN(IS=1.8E-14 BF=400 NF=0.9955 VAF=80 IKF=0.14 ISE=5E-14 
+ NE=1.46 BR=35.5 NR=1.005 VAR=12.5 IKR=0.03 ISC=1.72E-13 NC=1.27 RB=0.56 
+ RE=0.6 RC=0.25 CJE=1.3E-11 TF=6.4E-10 CJC=4E-12 VJC=0.54 TR=5.072E-8 )

*BC414BP ZETEX Spice model     Last revision  4/90   Low Noise
*ZTX Si   3dB  45V 100mA 250MHz pkg:TO-92 1,2,3
.MODEL QBC414BP NPN(IS=1.8E-14 BF=400 NF=0.9955 VAF=80 IKF=0.14 ISE=5E-14 
+ NE=1.46 BR=35.5 NR=1.005 VAR=12.5 IKR=0.03 ISC=1.72E-13 NC=1.27 RB=0.56 
+ RE=0.6 RC=0.25 CJE=1.3E-11 TF=6.4E-10 CJC=4E-12 VJC=0.54 TR=5.072E-8 )

*BC546BP ZETEX Spice model     Last revision  4/90   General Purpose
*ZTX Si 500mW  65V 200mA 300MHz pkg:TO-92 1,2,3
.MODEL QBC546BP NPN(IS=1.8E-14 BF=400 NF=0.9955 VAF=80 IKF=0.14 ISE=5E-14 
+ NE=1.46 BR=35.5 NR=1.005 VAR=12.5 IKR=0.03 ISC=1.72E-13 NC=1.27 RB=0.56 
+ RE=0.6 RC=0.25 CJE=1.3E-11 TF=6.4E-10 CJC=4E-12 VJC=0.54 TR=5.072E-8 )

*BC547BP ZETEX Spice model     Last revision  4/90   General Purpose
*ZTX Si 500mW  45V 200mA 300MHz pkg:TO-92 1,2,3
.MODEL QBC547BP NPN(IS=1.8E-14 BF=400 NF=0.9955 VAF=80 IKF=0.14 ISE=5E-14 
+ NE=1.46 BR=35.5 NR=1.005 VAR=12.5 IKR=0.03 ISC=1.72E-13 NC=1.27 RB=0.56 
+ RE=0.6 RC=0.25 CJE=1.3E-11 TF=6.4E-10 CJC=4E-12 VJC=0.54 TR=5.072E-8 )

*BC548BP ZETEX Spice model     Last revision  4/90   General Purpose
*ZTX Si 500mW  30V 200mA 300MHz pkg:TO-92 1,2,3
.MODEL QBC548BP NPN(IS=1.8E-14 BF=400 NF=0.9955 VAF=80 IKF=0.14 ISE=5E-14 
+ NE=1.46 BR=35.5 NR=1.005 VAR=12.5 IKR=0.03 ISC=1.72E-13 NC=1.27 RB=0.56 
+ RE=0.6 RC=0.25 CJE=1.3E-11 TF=6.4E-10 CJC=4E-12 VJC=0.54 TR=5.072E-8 )

*BC549BP ZETEX Spice model     Last revision  4/90   Low Noise
*ZTX Si   4dB  30V 200mA 300MHz pkg:TO-92 1,2,3
.MODEL QBC549BP NPN(IS=1.8E-14 BF=400 NF=0.9955 VAF=80 IKF=0.14 ISE=5E-14 
+ NE=1.46 BR=35.5 NR=1.005 VAR=12.5 IKR=0.03 ISC=1.72E-13 NC=1.27 RB=0.56 
+ RE=0.6 RC=0.25 CJE=1.3E-11 TF=6.4E-10 CJC=4E-12 VJC=0.54 TR=5.072E-8 )

*BC550BP ZETEX Spice model     Last revision  4/90   Low Noise
*ZTX Si   3dB  45V 200mA 300MHz pkg:TO-92 1,2,3
.MODEL QBC550BP NPN(IS=1.8E-14 BF=400 NF=0.9955 VAF=80 IKF=0.14 ISE=5E-14 
+ NE=1.46 BR=35.5 NR=1.005 VAR=12.5 IKR=0.03 ISC=1.72E-13 NC=1.27 RB=0.56 
+ RE=0.6 RC=0.25 CJE=1.3E-11 TF=6.4E-10 CJC=4E-12 VJC=0.54 TR=5.072E-8 )

*BC846B ZETEX Spice model     Last revision  4/90   General Purpose
*ZTX Si 350mW  65V 100mA 300MHz pkg:SOT-23 1,3,2
.MODEL QBC846B NPN(IS=1.8E-14 BF=400 NF=0.9955 VAF=80 IKF=0.14 ISE=5E-14 
+ NE=1.46 BR=35.5 NR=1.005 VAR=12.5 IKR=0.03 ISC=1.72E-13 NC=1.27 RB=0.56 
+ RE=0.6 RC=0.25 CJE=1.3E-11 TF=6.4E-10 CJC=4E-12 VJC=0.54 TR=5.072E-8 )

*BC847B ZETEX Spice model     Last revision  4/90   General Purpose
*ZTX Si 350mW  45V 100mA 300MHz pkg:SOT-23 1,3,2
.MODEL QBC847B NPN(IS=1.8E-14 BF=400 NF=0.9955 VAF=80 IKF=0.14 ISE=5E-14 
+ NE=1.46 BR=35.5 NR=1.005 VAR=12.5 IKR=0.03 ISC=1.72E-13 NC=1.27 RB=0.56 
+ RE=0.6 RC=0.25 CJE=1.3E-11 TF=6.4E-10 CJC=4E-12 VJC=0.54 TR=5.072E-8 )

*BC848B ZETEX Spice model     Last revision  4/90   General Purpose
*ZTX Si 350mW  30V 100mA 300MHz pkg:SOT-23 1,3,2
.MODEL QBC848B NPN(IS=1.8E-14 BF=400 NF=0.9955 VAF=80 IKF=0.14 ISE=5E-14 
+ NE=1.46 BR=35.5 NR=1.005 VAR=12.5 IKR=0.03 ISC=1.72E-13 NC=1.27 RB=0.56 
+ RE=0.6 RC=0.25 CJE=1.3E-11 TF=6.4E-10 CJC=4E-12 VJC=0.54 TR=5.072E-8 )

*BC849B ZETEX Spice model     Last revision  4/90   Low Noise
*ZTX Si 350mW  30V 100mA 300MHz pkg:SOT-23 1,3,2
.MODEL QBC849B NPN(IS=1.8E-14 BF=400 NF=0.9955 VAF=80 IKF=0.14 ISE=5E-14 
+ NE=1.46 BR=35.5 NR=1.005 VAR=12.5 IKR=0.03 ISC=1.72E-13 NC=1.27 RB=0.56 
+ RE=0.6 RC=0.25 CJE=1.3E-11 TF=6.4E-10 CJC=4E-12 VJC=0.54 TR=5.072E-8 )

*BC850B ZETEX Spice model     Last revision  4/90   Low Noise
*ZTX Si 350mW  45V 100mA 300MHz pkg:SOT-23 1,3,2
.MODEL QBC850B NPN(IS=1.8E-14 BF=400 NF=0.9955 VAF=80 IKF=0.14 ISE=5E-14 
+ NE=1.46 BR=35.5 NR=1.005 VAR=12.5 IKR=0.03 ISC=1.72E-13 NC=1.27 RB=0.56 
+ RE=0.6 RC=0.25 CJE=1.3E-11 TF=6.4E-10 CJC=4E-12 VJC=0.54 TR=5.072E-8 )

*BCV72 ZETEX Spice model     Last revision  4/90   General Purpose
*ZTX Si 350mW  60V 100mA 300MHz pkg:SOT-23 1,3,2
.MODEL QBCV72 NPN(IS=1.8E-14 BF=400 NF=0.9955 VAF=80 IKF=0.14 ISE=5E-14 
+ NE=1.46 BR=35.5 NR=1.005 VAR=12.5 IKR=0.03 ISC=1.72E-13 NC=1.27 RB=0.56 
+ RE=0.6 RC=0.25 CJE=1.3E-11 TF=6.4E-10 CJC=4E-12 VJC=0.54 TR=5.072E-8 )

*BCW32 ZETEX Spice model     Last revision  4/90   General Purpose
*ZTX Si 350mW  20V 100mA 300MHz pkg:SOT-23 1,3,2
.MODEL QBCW32 NPN(IS=1.8E-14 BF=400 NF=0.9955 VAF=80 IKF=0.14 ISE=5E-14 
+ NE=1.46 BR=35.5 NR=1.005 VAR=12.5 IKR=0.03 ISC=1.72E-13 NC=1.27 RB=0.56 
+ RE=0.6 RC=0.25 CJE=1.3E-11 TF=6.4E-10 CJC=4E-12 VJC=0.54 TR=5.072E-8 )

*BCW60C ZETEX Spice model     Last revision  4/90   General Purpose
*ZTX Si 350mW  32V 200mA 250MHz pkg:SOT-23 1,3,2
.MODEL QBCW60C NPN(IS=1.8E-14 BF=400 NF=0.9955 VAF=80 IKF=0.14 ISE=5E-14 
+ NE=1.46 BR=35.5 NR=1.005 VAR=12.5 IKR=0.03 ISC=1.72E-13 NC=1.27 RB=0.56 
+ RE=0.6 RC=0.25 CJE=1.3E-11 TF=6.4E-10 CJC=4E-12 VJC=0.54 TR=5.072E-8 )

*BCW65A ZETEX Spice model     Last revision  4/90   Medium Power
*ZTX Si 425mW  32V 800mA 100MHz pkg:SOT-23 1,3,2
.MODEL QBCW65A NPN(IS=3.94E-14 BF=175 VAF=109.4 IKF=0.8 ISE=7.4E-15 
+ NE=1.3 BR=20.5 NR=0.974 VAR=14.25 IKR=0.1 ISC=3.16E-13 NC=1.2 RB=1.1 
+ RE=0.1259 RC=0.0539 CJE=6.3E-11 TF=7.5E-10 CJC=1.58E-11 VJC=0.505 
+ MJC=0.39 TR=8.5E-8 )

*BCW66F ZETEX Spice model     Last revision  4/90   Medium Power
*ZTX Si 425mW  45V 800mA 100MHz pkg:SOT-23 1,3,2
.MODEL QBCW66F NPN(IS=3.94E-14 BF=175 VAF=109.4 IKF=0.8 ISE=7.4E-15 
+ NE=1.3 BR=20.5 NR=0.974 VAR=14.25 IKR=0.1 ISC=3.16E-13 NC=1.2 RB=1.1 
+ RE=0.1259 RC=0.0539 CJE=6.3E-11 TF=7.5E-10 CJC=1.58E-11 VJC=0.505 
+ MJC=0.39 TR=8.5E-8 )

*BCW72 ZETEX Spice model     Last revision  4/90   General Purpose
*ZTX Si 350mW  45V 100mA 300MHz pkg:SOT-23 1,3,2
.MODEL QBCW72 NPN(IS=1.8E-14 BF=400 NF=0.9955 VAF=80 IKF=0.14 ISE=5E-14 
+ NE=1.46 BR=35.5 NR=1.005 VAR=12.5 IKR=0.03 ISC=1.72E-13 NC=1.27 RB=0.56 
+ RE=0.6 RC=0.25 CJE=1.3E-11 TF=6.4E-10 CJC=4E-12 VJC=0.54 TR=5.072E-8 )

*BCX70J ZETEX Spice model     Last revision  4/90   General Purpose
*ZTX Si 350mW  45V 200mA 250MHz pkg:SOT-23 1,3,2
.MODEL QBCX70J NPN(IS=1.8E-14 BF=400 NF=0.9955 VAF=80 IKF=0.14 ISE=5E-14 
+ NE=1.46 BR=35.5 NR=1.005 VAR=12.5 IKR=0.03 ISC=1.72E-13 NC=1.27 RB=0.56 
+ RE=0.6 RC=0.25 CJE=1.3E-11 TF=6.4E-10 CJC=4E-12 VJC=0.54 TR=5.072E-8 )

*BF720 MCE 5/11/95
*Si 1.5W  300V 100mA  60MHz pkg:SOT-223 2,1,3
.MODEL QBF720 NPN (IS=10.1F NF=1 BF=65 VAF=311 IKF=60M ISE=15.6P NE=2
+ BR=4 NR=1 VAR=20 IKR=90M RE=9.38 RB=37.5 RC=3.75 XTB=1.5
+ CJE=17.6P VJE=1.1 MJE=.5 CJC=5.68P VJC=.3 MJC=.3 TF=2.65N TR=1.84U)

*BFQ31 ZETEX Spice model   Last revision 9/90   VHF/RF
*ZTX Si 350mW  15V 100mA 600MHz pkg:SOT-23 1,3,2
.MODEL QBFQ31 NPN(IS=1.73E-13 BF=200 VAF=90 IKF=0.0088 ISE=2.41E-10 
+ NE=1.701 BR=3.124 NR=0.9705 VAR=9.7 IKR=0.02 ISC=8.31E-13 NC=1.112 
+ RB=17 RE=2.13 RC=30 CJE=2.27E-12 TF=2E-10 CJC=1.2E-12 VJC=0.415 MJC=0.145 
+ TR=1E-9 )

*BFS60 ZETEX Spice model     Last revision  4/90   Medium Power
*ZTX Si 500mW  40V    1A 150MHz pkg:TO-92 1,2,3
.MODEL QBFS60 NPN(IS=3.94E-14 BF=175 VAF=109.4 IKF=0.8 ISE=7.4E-15 
+ NE=1.3 BR=20.5 NR=0.974 VAR=14.25 IKR=0.1 ISC=3.16E-13 NC=1.2 RB=1.1 
+ RE=0.1259 RC=0.0539 CJE=6.3E-11 TF=7.5E-10 CJC=1.58E-11 VJC=0.505 
+ MJC=0.39 TR=8.5E-8 )

*ECG87 MCE 4/2/96
*Si 200W 250V 10A HiPwr LinAmp pkg:TO-3 3,1,2
.SUBCKT XECG87    1 2 3
Q1 1 2 3  QPWR .67
Q2 1 4 3  QPWR .33
RBS  2 4  7.7
.MODEL QPWR NPN (IS=737F NF=1 BF=39 VAF=284 IKF=3.33 ISE=1.65N NE=2
+ BR=4 NR=1 VAR=20 IKR=5 RE=33.1M RB=.132 RC=13.2M XTB=1.5
+ CJE=322P VJE=.6 MJE=.3 CJC=209P VJC=.22 MJC=.2 TF=53N TR=2.04U)
.ENDS XECG87

*ECG175 MCE 4/2/96
*Si 40W 300V 3A AF PwrAmp pkg:TO-66 3,1,2
.SUBCKT XEGC175   1 2 3
Q1 1 2 3  QPWR .67
Q2 1 4 3  QPWR .33
RBS  2 4  6.5
.MODEL QPWR NPN (IS=221F NF=1 BF=65 VAF=311 IKF=1 ISE=297P NE=2
+ BR=4 NR=1 VAR=24 IKR=1.5 RE=.11 RB=.442 RC=44.2M XTB=1.5
+ CJE=98.6P VJE=.6 MJE=.3 CJC=64P VJC=.22 MJC=.2 TF=15.9N TR=612N)
.ENDS XEGC175

*ECG188 MCE 4/2/96
*Si 10W 80V 2A AF Driver PwrAmp pkg:TO-202
.SUBCKT XEGC188   1 2 3
Q1 1 2 3  QPWR .67
Q2 1 4 3  QPWR .33
RBS  2 4  23
.MODEL QPWR NPN (IS=147F NF=1 BF=104 VAF=161 IKF=.667 ISE=123P NE=2
+ BR=4 NR=1 VAR=16 IKR=1 RE=.165 RB=.663 RC=66.3M XTB=1.5
+ CJE=66.7P VJE=.6 MJE=.3 CJC=43.3P VJC=.22 MJC=.2 TF=3.18N TR=122N)
.ENDS XEGC188

*ECG191 MCE 4/2/96
*Si 10W 300V 500mA HV A/V Amp pkg:TO-202
.SUBCKT XEGC191   1 2 3
Q1 1 2 3  QPWR .67
Q2 1 4 3  QPWR .33
RBS  2 4  6.5
.MODEL QPWR NPN (IS=36.8F NF=1 BF=65 VAF=311 IKF=.166 ISE=49.5P NE=2
+ BR=4 NR=1 VAR=24 IKR=.25 RE=.663 RB=2.65 RC=.265 XTB=1.5
+ CJE=18.8P VJE=.6 MJE=.3 CJC=12.2P VJC=.22 MJC=.2 TF=2.65N TR=102N)
.ENDS XEGC191

*ECG228A MCE 4/2/96
*Si 10W 350V 1A HiSpeedSw LinAmp A/V pkg:TO-202
.SUBCKT XEGC228A  1 2 3
*    TERMINALS:  C B E
*  350 Volt  1 Amp  SiNPN  Power Transistor  04-02-1996
Q1 1 2 3  QPWR .67
Q2 1 4 3  QPWR .33
RBS  2 4  5.64
.MODEL QPWR NPN (IS=73.7F NF=1 BF=52 VAF=336 IKF=.333 ISE=123P NE=2
+ BR=4 NR=1 VAR=28 IKR=.5 RE=.331 RB=1.32 RC=.132 XTB=1.5
+ CJE=34.8P VJE=.6 MJE=.3 CJC=22.6P VJC=.22 MJC=.2 TF=10.6N TR=408N)
.ENDS XEGC228A

*ECG375 MCE 4/2/96
*Si 25W 150V 3A VertDefl AF Amp pkg:TO-220 2,1,3
.SUBCKT XEGC375   1 2 3
Q1 1 2 3  QPWR .67
Q2 1 4 3  QPWR .33
RBS  2 4  12.5
.MODEL QPWR NPN (IS=221F NF=1 BF=195 VAF=220 IKF=1 ISE=99.1P NE=2
+ BR=4 NR=1 VAR=24 IKR=1.5 RE=.11 RB=.442 RC=44.2M XTB=1.5
+ CJE=98.6P VJE=.6 MJE=.3 CJC=64P VJC=.22 MJC=.2 TF=19.8N TR=765N)
.ENDS XEGC375

*ECG376 MCE 4/2/96
*Si 1.5W 300V 150mA PwrAmp pkg:TO-220 2,1,3
.SUBCKT XEGC376   1 2 3
Q1 1 2 3  QPWR .67
Q2 1 4 3  QPWR .33
RBS  2 4  6.5
.MODEL QPWR NPN (IS=11F NF=1 BF=130 VAF=311 IKF=50M ISE=7.43P NE=2
+ BR=4 NR=1 VAR=20 IKR=75M RE=2.21 RB=8.84 RC=.884 XTB=1.5
+ CJE=7.69P VJE=.6 MJE=.3 CJC=4.99P VJC=.22 MJC=.2 TF=1.98N TR=76.5N)
.ENDS XEGC376

*ECG388 MCE 4/2/96
*Si 250W 250V 16A HiPwr AF Amp pkg:TO-3 3,1,2
.SUBCKT XEGC388   1 2 3
Q1 1 2 3  QPWR .67
Q2 1 4 3  QPWR .33
RBS  2 4  7.7
.MODEL QPWR NPN (IS=1.17P NF=1 BF=39 VAF=284 IKF=5.33 ISE=2.64N NE=2
+ BR=4 NR=1 VAR=20 IKR=8 RE=20.7M RB=82.9M RC=8.29M XTB=1.5
+ CJE=513P VJE=.6 MJE=.3 CJC=333P VJC=.22 MJC=.2 TF=31.8N TR=1.22U)
.ENDS XEGC388

*FCX458 ZETEX Spice model   Last revision 19/3/92   High Voltage
*ZTX Si  1.5W 400V 300mA  50MHz pkg:SOT-89 2,1,3
.MODEL QFCX458 NPN(IS=5.33E-14 BF=190 NF=0.992 VAF=1050 IKF=0.075 
+ ISE=2.1E-14 NE=1.385 BR=16.3 NR=1.05 VAR=99 IKR=1.8 ISC=6.42E-12 NC=1.25 
+ RB=0.5 RE=0.224 RC=0.134 CJE=1.22E-10 TF=1.66E-9 CJC=8.5E-12 VJC=0.4332 
+ MJC=0.3966 TR=8E-6 )

*FCX649 ZETEX Spice model   Last revision  17/7/90   Medium Power
*ZTX Si  1.5W  25V    2A 240MHz pkg:SOT-89 2,1,3
.MODEL QFCX649 NPN(IS=3E-13 BF=225 VAF=80 IKF=2.8 ISE=1.1E-13 NE=1.37 
+ BR=110 NR=0.972 VAR=28 IKR=0.8 ISC=6.5E-13 NC=1.372 RB=0.3 RE=0.063 
+ RC=0.07 CJE=3.25E-10 TF=1E-9 CJC=7E-11 TR=1E-8 )

*FMMT918 ZETEX Spice model   Last revision 9/90   VHF/RF
*ZTX Si 350mW  15V 100mA 600MHz pkg:SOT-23 1,3,2
.MODEL QFMMT918 NPN(IS=1.73E-13 BF=200 VAF=90 IKF=0.0088 ISE=2.41E-10 
+ NE=1.701 BR=3.124 NR=0.9705 VAR=9.7 IKR=0.02 ISC=8.31E-13 NC=1.112 
+ RB=17 RE=2.13 RC=30 CJE=2.27E-12 TF=2E-10 CJC=1.2E-12 VJC=0.415 MJC=0.145 
+ TR=1E-9 )

*FMMTA20 ZETEX Spice model     Last revision  4/90   General Purpose
*ZTX Si 350mW  40V 100mA 125MHz pkg:SOT-23 1,3,2
.MODEL QFMMTA20 NPN(IS=1.8E-14 BF=400 NF=0.9955 VAF=80 IKF=0.14 ISE=5E-14 
+ NE=1.46 BR=35.5 NR=1.005 VAR=12.5 IKR=0.03 ISC=1.72E-13 NC=1.27 RB=0.56 
+ RE=0.6 RC=0.25 CJE=1.3E-11 TF=6.4E-10 CJC=4E-12 VJC=0.54 TR=5.072E-8 )

*FZT649 ZETEX Spice model   Last revision  17/7/90   Medium Power
*ZTX Si    2W  25V    3A 150MHz pkg:SOT-223 2,1,3
.MODEL QFZT649 NPN(IS=3E-13 BF=225 VAF=80 IKF=2.8 ISE=1.1E-13 NE=1.37 
+ BR=110 NR=0.972 VAR=28 IKR=0.8 ISC=6.5E-13 NC=1.372 RB=0.3 RE=0.063 
+ RC=0.07 CJE=3.25E-10 TF=1E-9 CJC=7E-11 TR=1E-8 )

*FZT651 ZETEX Spice model   Last revision  16/1/91   Medium Power
*ZTX Si    2W  60V    3A 140MHz pkg:SOT-223 2,1,3
.MODEL QFZT651 NPN(IS=2.22E-13 BF=230 NF=0.9956 VAF=100 IKF=2 ISE=2.9E-14 
+ NE=1.35 BR=56 NR=0.995 VAR=30 IKR=1 ISC=2.97E-13 NC=1.321 RB=0.04 
+ RE=0.075 RC=0.069 CJE=3.18E-10 TF=7.7E-10 CJC=5.1E-11 VJC=0.595 MJC=0.42 
+ TR=2.7E-8 )

*FZT657 ZETEX Spice model   Last revision   30/11/90   High Voltage
*ZTX Si    2W 300V 500mA  30MHz pkg:SOT-223 2,1,3
.MODEL QFZT657 NPN(IS=1.88E-13 BF=120 NF=1.003 VAF=1400 IKF=0.22 
+ ISE=2.1E-14 NE=1.28 BR=8.3 NR=1.005 VAR=50 IKR=1.1 ISC=5E-13 NC=1.8 
+ RB=0.1 RE=0.095 RC=0.146 CJE=3.7E-10 TF=1.77E-9 CJC=2.4E-11 VJC=0.525 
+ MJC=0.48 TR=8E-7 )

*FZT658 ZETEX Spice model   Last revision 13/4/92   High Voltage
*ZTX Si    2W 400V 500mA  50MHz pkg:SOT-223 2,1,3
.MODEL QFZT658 NPN(IS=2.3E-13 BF=170 VAF=1367 IKF=0.165 ISE=6.14E-14 
+ NE=1.39 BR=13 NR=1.002 VAR=59 IKR=0.85 ISC=9.19E-15 NC=1.032 RB=0.08 
+ RE=0.136 RC=0.181 CJE=3.3E-10 TF=2.08E-9 CJC=2.25E-11 VJC=0.425 MJC=0.44 
+ TR=2.3E-7 )

*FZT688B ZETEX Spice model   Last revision 8/11/90   Medium Power
*ZTX Si    2W  15V    4A 150MHz pkg:SOT-223 2,1,3
.MODEL QFZT688B NPN(IS=1.09E-12 BF=1180 NF=0.9935 VAF=25 IKF=5.2 
+ ISE=1.3E-13 NE=1.35 BR=790 NR=0.992 VAR=5 IKR=0.5 ISC=1.74E-13 NC=1.399 
+ RB=0.3 RE=0.036 RC=0.034 CJE=2.8E-10 TF=9.3E-10 CJC=1.04E-10 VJC=0.46 
+ MJC=0.29 TR=1.05E-9 )

*FZT689B ZETEX Spice model   Last revision 11/9/90   Medium Power
*ZTX Si    2W  20V    3A 150MHz pkg:SOT-223 2,1,3
.MODEL QFZT689B NPN(IS=1.8E-12 BF=1850 NF=0.994 VAF=24 IKF=3.2 ISE=2.18E-13 
+ NE=1.345 BR=370 NR=0.996 VAR=4 IKR=0.8 ISC=3.6E-13 NC=1.26 RB=0.2 
+ RE=0.035 RC=0.036 CJE=2.48E-10 TF=7.2E-10 CJC=7.4E-11 VJC=0.485 MJC=0.35 
+ TR=2.07E-9 )

*FZT690B ZETEX Spice model  Last revision 18/11/90   Medium Power
*Note: This model may be inaccurate for collector currents above 2A.
*ZTX Si    2W  45V    2A 150MHz pkg:SOT-223 2,1,3
.MODEL QFZT690B NPN(IS=2.505E-12 BF=1360 NF=1.006 VAF=35 IKF=1.3 
+ ISE=2.4E-13 NE=1.38 BR=125 NR=1.001 VAR=8 IKR=1 ISC=4.35E-13 NC=1.213 
+ RB=0.2 RE=0.043 RC=0.04 CJE=2.47E-10 TF=8.51E-10 CJC=5.43E-11 VJC=0.765 
+ MJC=0.475 TR=1.57E-8 )

*FZT692B ZETEX Spice model    Last revision  31/10/90   Medium Power
*Note: This model may be inaccurate for collector currents above 1.5A.
*ZTX Si    2W  70V    1A 150MHz pkg:SOT-223 2,1,3
.MODEL QFZT692B NPN(IS=1.87E-12 BF=1400 NF=0.9983 VAF=29 IKF=0.73 
+ ISE=2.1E-13 NE=1.378 BR=68 NR=0.997 VAR=12 IKR=0.55 ISC=4.4E-13 NC=1.14 
+ RB=0.2 RE=0.05 RC=0.048 CJE=2.33E-10 TF=7.7E-10 CJC=4.25E-11 VJC=0.625 
+ MJC=0.475 TR=3.9E-8 )

*FZT694B ZETEX Spice model    Last revision  1/11/90   Medium Power
*Note: This model may be inaccurate for collector currents above 0.6A.
*ZTX Si    2W 120V    1A 130MHz pkg:SOT-223 2,1,3
.MODEL QFZT694B NPN(IS=1.59E-12 BF=1009 NF=1.001 VAF=45 IKF=0.26 
+ ISE=2.53E-13 NE=1.445 BR=40 VAR=30 IKR=1 ISC=3.26E-13 NC=1.075 RB=0.2 
+ RE=0.065 RC=0.075 CJE=2.58E-10 TF=7.63E-10 CJC=3.55E-11 VJC=0.515 
+ MJC=0.465 TR=1.3E-7 )

*FZT696B ZETEX Spice model    Last revision  5/11/90   Medium Power
*Note: This model may be inaccurate for collector currents above 0.25A.
*ZTX Si    2W 250V 500mA  70MHz pkg:SOT-223 2,1,3
.MODEL QFZT696B NPN(IS=9.85E-13 BF=705 NF=0.999 VAF=235 IKF=0.145 
+ ISE=8.1E-14 NE=1.36 BR=20 NR=1.002 VAR=26 IKR=0.8 ISC=6.6E-13 NC=1.15 
+ RB=0.07 RE=0.125 RC=0.098 CJE=2.7E-10 TF=1.301E-9 CJC=2.54E-11 VJC=0.445 
+ MJC=0.47 TR=6.9E-7 )

*MJE340 MCE Power Transistor Subcircuit 1/30/96
*    TERMINALS:  C B E
*Si 20.8W 300V 500mA pkg:TO-220 2,3,1
.SUBCKT XMJE340  1 2 3
Q1 1 2 3  PWR .67
Q2 1 4 3  PWR .33
RBS  2 4  6.5
.MODEL PWR NPN (IS=36.8F NF=1 BF=260 VAF=311 IKF=.166 ISE=12.3P NE=2
+ BR=4 NR=1 VAR=12 IKR=.25 RE=.663 RB=2.65 RC=.265 XTB=1.5
+ CJE=18.8P VJE=.6 MJE=.3 CJC=12.2P VJC=.22 MJC=.2 TF=7.65N TR=294N)
.ENDS XMJE340

*MM3725 MCE 5/13/95
*Si    1W  40V 500mA 307MHz pkg:TO-39 3,2,1
.MODEL QMM3725 NPN (IS=50.7F NF=1 BF=162 VAF=113 IKF=.45 ISE=38.2P NE=2
+ BR=4 NR=1 VAR=24 IKR=.675 RE=.263 RB=1.05 RC=.105 XTB=1.5
+ CJE=62.2P VJE=1.1 MJE=.5 CJC=14.6P VJC=.3 MJC=.3 TF=518P TR=45.9N)

*MMBT5089 MCE 5/11/95
*Si 225mW  25V  50mA 600MHz pkg:SOT-23 1,3,2
.MODEL QMMBT5089 NPN (IS=6.35F NF=1 BF=840 VAF=90 IKF=30M ISE=222F NE=2
+ BR=4 NR=1 VAR=18 IKR=45M RE=8.15 RB=32.6 RC=3.26 XTB=1.5
+ CJE=4.82P VJE=1.1 MJE=.5 CJC=4.26P VJC=.3 MJC=.3 TF=265P TR=184N)

*MMBT6517 MCE 5/12/95
*Si 225mW 350V 500mA 200MHz pkg:SOT-23 1,3,2
.MODEL QMMBT6517 NPN (IS=236F NF=1 BF=130 VAF=336 IKF=.1 ISE=48.6P NE=2
+ BR=4 NR=1 VAR=20 IKR=.15 RE=9.63 RB=38.5 RC=3.85 XTB=1.5
+ CJE=96.5P VJE=1.1 MJE=.5 CJC=21.2P VJC=.3 MJC=.3 TF=795P TR=552N)

*MMBTA06 MCE 5/12/95
*Si 225mW  80V 500mA 200MHz pkg:SOT-23 1,3,2
.MODEL QMMBTA06 NPN (IS=2.81E-17 NF=1 BF=260 VAF=161 IKF=.3 ISE=459F NE=2
+ BR=4 NR=1 VAR=16 IKR=.45 RE=.815 RB=3.26 RC=.326 XTB=1.5
+ CJE=58.7P VJE=1.1 MJE=.5 CJC=18.9P VJC=.3 MJC=.3 TF=795P TR=552N)

*MMBTA42 MCE 5/12/95
*Si 225mW 300V 500mA  60MHz pkg:SOT-23 1,3,2
.MODEL QMMBTA42 NPN (IS=887F NF=1 BF=78 VAF=311 IKF=.3 ISE=271P NE=2
+ BR=4 NR=1 VAR=24 IKR=.45 RE=11.5 RB=46.3 RC=4.63 XTB=1.5
+ CJE=32.9P VJE=1.1 MJE=.5 CJC=10.6P VJC=.3 MJC=.3 TF=2.65N TR=1.84U)

*MMBTH24 MCE 5/12/95
*Si 225mW  30V  50mA 620MHz pkg:SOT-23 1,3,2
.MODEL QMMBTH24 NPN (IS=5.07F NF=1 BF=65 VAF=98.6 IKF=30M ISE=7.8P NE=2
+ BR=4 NR=1 VAR=16 IKR=45M RE=1.03 RB=4.12 RC=.412 XTB=1.5
+ CJE=2.23P VJE=1.1 MJE=.5 CJC=722F VJC=.3 MJC=.3 TF=256P TR=178N)

*MPS651 MCE 5/12/95
*Si 625mW  60V    2A 110MHz pkg:TO-92 1,2,3
.MODEL QMPS651 NPN (IS=72.1F NF=1 BF=260 VAF=139 IKF=2.5 ISE=67.1P NE=2
+ BR=4 NR=1 VAR=20 IKR=3.75 RE=28.2M RB=.113 RC=11.3M XTB=1.5
+ CJE=212P VJE=1.1 MJE=.5 CJC=68.6P VJC=.3 MJC=.3 TF=1.44N TR=1U)

*MPS918 MCE 5/12/95
*Si 350mW  15V  50mA 800MHz pkg:TO-92 1,2,3
.MODEL QMPS918 NPN (IS=5.07F NF=1 BF=130 VAF=69.7 IKF=30M ISE=3.9P NE=2
+ BR=4 NR=1 VAR=12 IKR=45M RE=13.1 RB=52.6 RC=5.26 XTB=1.5
+ CJE=2.41P VJE=1.1 MJE=.5 CJC=4.91P VJC=.3 MJC=.3 TF=198P TR=138N)

*MPS2222A MCE 1/26/96
*Si 625mW  40V 600mA 300MHz pkg:TO-92 1,2,3
.MODEL QMPS2222A NPN (IS=.504F NF=1 BF=339 VAF=113 IKF=.36 ISE=1.63P NE=2
+ BR=4 NR=1 VAR=24 IKR=.54 RE=.173 RB=.692 RC=69.2M XTB=1.5
+ CJE=23.5P VJE=1.1 MJE=.5 CJC=10.6P VJC=.3 MJC=.3 TF=521P TR=272N)

*MPS2711 MCE 8/4/95
*Si 310mW  18V 100mA 490MHz pkg:TO-92 1,2,3
.MODEL QMPS2711 NPN (IS=10.1F NF=1 BF=78 VAF=76.4 IKF=60M ISE=13P NE=2
+ BR=4 NR=1 VAR=20 IKR=90M RE=.515 RB=2.06 RC=.206 XTB=1.5
+ CJE=17.6P VJE=1.1 MJE=.5 CJC=5.68P VJC=.3 MJC=.3 TF=324P TR=225N)

*MPS2712 MCE 8/4/95
*Si 310mW  18V 100mA 490MHz pkg:TO-92 1,2,3
.MODEL QMPS2712 NPN (IS=10.1F NF=1 BF=195 VAF=76.4 IKF=60M ISE=5.2P NE=2
+ BR=4 NR=1 VAR=20 IKR=90M RE=.515 RB=2.06 RC=.206 XTB=1.5
+ CJE=17.6P VJE=1.1 MJE=.5 CJC=5.68P VJC=.3 MJC=.3 TF=324P TR=225N)

*MPS2713 MCE 8/4/95
*Si 310mW  18V 200mA 250MHz pkg:TO-92 1,2,3
.MODEL QMPS2713 NPN (IS=20.3F NF=1 BF=78 VAF=76.4 IKF=.12 ISE=26P NE=2
+ BR=4 NR=1 VAR=20 IKR=.18 RE=.257 RB=1.03 RC=.103 XTB=1.5
+ CJE=22.3P VJE=1.1 MJE=.5 CJC=7.22P VJC=.3 MJC=.3 TF=636P TR=442N)

*MPS2714 MCE 8/4/95
*Si 310mW  18V 200mA 250MHz pkg:TO-92 1,2,3
.MODEL QMPS2714 NPN (IS=20.3F NF=1 BF=195 VAF=76.4 IKF=.12 ISE=10.4P NE=2
+ BR=4 NR=1 VAR=20 IKR=.18 RE=.257 RB=1.03 RC=.103 XTB=1.5
+ CJE=22.3P VJE=1.1 MJE=.5 CJC=7.22P VJC=.3 MJC=.3 TF=636P TR=442N)

*MPS3646 MCE 5/12/95
*Si 625mW  15V 300mA 400MHz pkg:TO-92 1,2,3
.MODEL QMPS3646 NPN (IS=30.4F NF=1 BF=78 VAF=69.7 IKF=.18 ISE=39P NE=2
+ BR=4 NR=1 VAR=20 IKR=.27 RE=1.21 RB=4.86 RC=.486 XTB=1.5
+ CJE=10.8P VJE=1.1 MJE=.5 CJC=11.8P VJC=.3 MJC=.3 TF=397P TR=276N)

*MPS3904 MCE 1/26/96
*Si 625mW  40V 100mA 250MHz pkg:TO-92 1,2,3
.MODEL QMPS3904 NPN (IS=4.72F NF=1 BF=226 VAF=113 IKF=80M ISE=2.03P NE=2
+ BR=4 NR=1 VAR=24 IKR=.12 RE=1.81 RB=7.26 RC=.726 XTB=1.5
+ CJE=7.6P VJE=1.1 MJE=.5 CJC=5.68P VJC=.3 MJC=.3 TF=636P TR=850N)

*MPS5179 MCE 5/12/95
*Si 200mW  12V  50mA 1.5GHz pkg:TO-92 1,2,3
.MODEL QMPS5179 NPN (IS=5.07F NF=1 BF=195 VAF=62.3 IKF=30M ISE=2.6P NE=2
+ BR=4 NR=1 VAR=10 IKR=45M RE=1.03 RB=4.12 RC=.412 XTB=1.5
+ CJE=8.95P VJE=1.1 MJE=.5 CJC=2.89P VJC=.3 MJC=.3 TF=106P TR=73.7N)

*MPS6521 MCE 5/12/95
*Si 625mW  25V 100mA 490MHz pkg:TO-92 1,2,3
.MODEL QMPS6521 NPN (IS=10.1F NF=1 BF=585 VAF=90 IKF=60M ISE=1.73P NE=2
+ BR=4 NR=1 VAR=16 IKR=90M RE=3.63 RB=14.5 RC=1.45 XTB=1.5
+ CJE=31.3P VJE=1.1 MJE=.5 CJC=10.1P VJC=.3 MJC=.3 TF=324P TR=225N)

*MPS6595 MCE 5/12/95
*Si 350mW  12V  50mA 1.5GHz pkg:TO-92 1,2,3
.MODEL QMPS6595 NPN (IS=5.07F NF=1 BF=234 VAF=62.3 IKF=30M ISE=2.16P NE=2
+ BR=4 NR=1 VAR=12 IKR=45M RE=1.03 RB=4.12 RC=.412 XTB=1.5
+ CJE=11.6P VJE=1.1 MJE=.5 CJC=3.75P VJC=.3 MJC=.3 TF=106P TR=73.7N)

*MPS6602 MCE 5/12/95
*Si 625mW  40V    1A 210MHz pkg:TO-92 1,2,3
.MODEL QMPS6602 NPN (IS=101F NF=1 BF=273 VAF=113 IKF=.6 ISE=37.1P NE=2
+ BR=4 NR=1 VAR=16 IKR=.9 RE=.281 RB=1.12 RC=.112 XTB=1.5
+ CJE=80.1P VJE=1.1 MJE=.5 CJC=17.3P VJC=.3 MJC=.3 TF=757P TR=510N)

*MPS8099 MCE 5/12/95
*Si 625mW  80V 500mA 225MHz pkg:TO-92 1,2,3
.MODEL QMPS8099 NPN (IS=9.73F NF=1 BF=1.33K VAF=161 IKF=.16 ISE=10.9P NE=2
+ BR=4 NR=1 VAR=20 IKR=.24 RE=.257 RB=1.03 RC=.103 XTB=1.5
+ CJE=22.1P VJE=1.1 MJE=.5 CJC=7.57P VJC=.3 MJC=.3 TF=623P TR=1.53U)

*MPSA06 MCE 5/12/95