**************************************
*      Model Generated by MODPEX     *
*Copyright(c) Symmetry Design Systems*
*         All Rights Reserved        *
*    UNPUBLISHED LICENSED SOFTWARE   *
*   Contains Proprietary Information *
*      Which is The Property of      *
*     SYMMETRY OR ITS LICENSORS      *
*Commercial Use or Resale Restricted *
*   by Symmetry License Agreement    *
**************************************
* Model generated on Feb  6, 08
* MODEL FORMAT: SPICE3
.MODEL njw1302g pnp
+IS=5.45163e-13 BF=100.173 NF=0.981788 VAF=10
+IKF=4.32732 ISE=6.43606e-12 NE=1.46233 BR=0.562437
+NR=1.095 VAR=100 IKR=0.0147402 ISC=6.43606e-12
+NC=1.3691 RB=3.70218 IRB=0.1 RBM=0.163972
+RE=0.00611492 RC=0.0305746 XTB=1.67324 XTI=1
+EG=1.05 CJE=1.1214e-08 VJE=0.663546 MJE=0.32843
+TF=2.35244e-09 XTF=79.0726 VTF=4.60515 ITF=95.9461
+CJC=5e-10 VJC=0.95 MJC=0.23 XCJC=0.901894
+FC=0.8 CJS=0 VJS=0.75 MJS=0.5
+TR=1e-07 PTF=0 KF=0 AF=1


